k23/sourcebus_22000.trafo_75621868_75621868/Lines.dss
New Line.line_75616214_3109123_3103510 Units=km Length=0.029500000000000002 bus1=3103510.1.2.3 bus2=3109123.1.2.3 switch=n enabled=y phases=3 Linecode=3P_Code10
New Line.line_75616548_3103510_3103116 Units=km Length=0.040099998474121094 bus1=3103116.1.2.3 bus2=3103510.1.2.3 switch=n enabled=y phases=3 Linecode=3P_OH_Code0
New Line.line_75616550_3105685_3103118 Units=km Length=0.02129999923706055 bus1=3103118.3 bus2=3105685.3 switch=n enabled=y phases=1 Linecode=1P_Code9
New Line.line_75616632_3104256_3103199 Units=km Length=0.0455 bus1=3103199.1.2.3 bus2=3104256.1.2.3 switch=n enabled=y phases=3 Linecode=3P_OH_Code0
New Line.line_75616830_3105436_3103118 Units=km Length=0.013199999809265136 bus1=3103118.2 bus2=3105436.2 switch=n enabled=y phases=1 Linecode=1P_Code3
New Line.line_75616834_3104277_3103387 Units=km Length=0.0505999984741211 bus1=3103387.1.2.3 bus2=3104277.1.2.3 switch=n enabled=y phases=3 Linecode=3P_OH_Code0
New Line.line_75616967_3104584_3103507 Units=km Length=0.013899999618530274 bus1=3103507.1.2.3 bus2=3104584.1.2.3 switch=n enabled=y phases=3 Linecode=3P_OH_Code4
New Line.line_75616969_3103116_3103509 Units=km Length=0.0245 bus1=3103509.1.2.3 bus2=3103116.1.2.3 switch=n enabled=y phases=3 Linecode=3P_OH_Code0
New Line.line_75616970_3103387_3103510 Units=km Length=0.03490000152587891 bus1=3103510.1.2.3 bus2=3103387.1.2.3 switch=n enabled=y phases=3 Linecode=3P_OH_Code0
New Line.line_75618042_3106340_3104256 Units=km Length=0.017100000381469728 bus1=3104256.1 bus2=3106340.1 switch=n enabled=y phases=1 Linecode=1P_Code3
New Line.line_75618054_3106352_3104263 Units=km Length=0.011199999809265136 bus1=3104263.3 bus2=3106352.3 switch=n enabled=y phases=1 Linecode=1P_Code3
New Line.line_75618055_3106353_3104264 Units=km Length=0.013399999618530273 bus1=3104264.2 bus2=3106353.2 switch=n enabled=y phases=1 Linecode=1P_Code3
New Line.line_75618056_3106354_3103199 Units=km Length=0.0245 bus1=3103199.3 bus2=3106354.3 switch=n enabled=y phases=1 Linecode=1P_Code3
New Line.line_75618069_3106367_3104276 Units=km Length=0.011899999618530274 bus1=3104276.2 bus2=3106367.2 switch=n enabled=y phases=1 Linecode=1P_Code3
New Line.line_75618070_3106368_3103509 Units=km Length=0.020299999237060547 bus1=3103509.2 bus2=3106368.2 switch=n enabled=y phases=1 Linecode=1P_Code3
New Line.line_75618071_3106369_3103510 Units=km Length=0.0205 bus1=3103510.1.2.3 bus2=3106369.1.2.3 switch=n enabled=y phases=3 Linecode=3P_Code6
New Line.line_75618072_3106370_3104277 Units=km Length=0.017200000762939455 bus1=3104277.2 bus2=3106370.2 switch=n enabled=y phases=1 Linecode=1P_Code3
New Line.line_75618158_3106451_3104333 Units=km Length=0.011199999809265136 bus1=3104333.2 bus2=3106451.2 switch=n enabled=y phases=1 Linecode=1P_Code3
New Line.line_75618159_3106452_3104334 Units=km Length=0.026399999618530273 bus1=3104334.1 bus2=3106452.1 switch=n enabled=y phases=1 Linecode=1P_Code3
New Line.line_75618160_3106453_3104276 Units=km Length=0.028399999618530274 bus1=3104276.1 bus2=3106453.1 switch=n enabled=y phases=1 Linecode=1P_Code3
New Line.line_75618161_3106454_3104277 Units=km Length=0.0175 bus1=3104277.2 bus2=3106454.2 switch=n enabled=y phases=1 Linecode=1P_Code3
New Line.line_75618562_3106777_3104256 Units=km Length=0.020200000762939454 bus1=3104256.3 bus2=3106777.3 switch=n enabled=y phases=1 Linecode=1P_Code3
New Line.line_75618633_3104725_3104584 Units=km Length=0.022100000381469725 bus1=3104584.1.2.3 bus2=3104725.1.2.3 switch=n enabled=y phases=3 Linecode=3P_OH_Code4
New Line.line_75618634_3106824_3103118 Units=km Length=0.010399999618530274 bus1=3103118.3 bus2=3106824.3 switch=n enabled=y phases=1 Linecode=1P_Code3
New Line.line_75618744_3104334_3103507 Units=km Length=0.04459999847412109 bus1=3103507.1.2.3 bus2=3104334.1.2.3 switch=n enabled=y phases=3 Linecode=3P_OH_Code0
New Line.line_75618823_3106928_3103118 Units=km Length=0.018899999618530273 bus1=3103118.2 bus2=3106928.2 switch=n enabled=y phases=1 Linecode=1P_Code3
New Line.line_75618925_3103199_3104725 Units=km Length=0.03490000152587891 bus1=3104725.1.2.3 bus2=3103199.1.2.3 switch=n enabled=y phases=3 Linecode=3P_OH_Code4
New Line.line_75619009_3104263_3103507 Units=km Length=0.009899999618530273 bus1=3103507.3 bus2=3104263.3 switch=n enabled=y phases=1 Linecode=1P_Code3
New Line.line_75619021_3103507_3103118 Units=km Length=0.04779999923706055 bus1=3103118.1.2.3 bus2=3103507.1.2.3 switch=n enabled=y phases=3 Linecode=3P_OH_Code0
New Line.line_75619203_3107097_3103116 Units=km Length=0.0105 bus1=3103116.3 bus2=3107097.3 switch=n enabled=y phases=1 Linecode=1P_Code3
New Line.line_75619211_3107103_3103509 Units=km Length=0.039700000762939454 bus1=3103509.2 bus2=3107103.2 switch=n enabled=y phases=1 Linecode=1P_Code3
New Line.line_75619212_3107104_3103199 Units=km Length=0.01 bus1=3103199.1 bus2=3107104.1 switch=n enabled=y phases=1 Linecode=1P_Code3
New Line.line_75619341_3107175_3103507 Units=km Length=0.010899999618530274 bus1=3103507.3 bus2=3107175.3 switch=n enabled=y phases=1 Linecode=1P_Code3
New Line.line_75619391_3107207_3104927 Units=km Length=0.016799999237060548 bus1=3104927.3 bus2=3107207.3 switch=n enabled=y phases=1 Linecode=1P_Code3
New Line.line_75619434_3107238_3104725 Units=km Length=0.012800000190734864 bus1=3104725.3 bus2=3107238.3 switch=n enabled=y phases=1 Linecode=1P_Code3
New Line.line_75619477_3107260_3104276 Units=km Length=0.016799999237060548 bus1=3104276.1 bus2=3107260.1 switch=n enabled=y phases=1 Linecode=1P_Code3
New Line.line_75619868_3103118_3104333 Units=km Length=0.048599998474121095 bus1=3104333.1.2.3 bus2=3103118.1.2.3 switch=n enabled=y phases=3 Linecode=3P_OH_Code0
New Line.line_75619928_3107531_3105113 Units=km Length=0.018799999237060546 bus1=3105113.2 bus2=3107531.2 switch=n enabled=y phases=1 Linecode=1P_Code3
New Line.line_75619929_3107531_3105113 Units=km Length=0.018799999237060546 bus1=3105113.2 bus2=3107531.2 switch=n enabled=y phases=1 Linecode=1P_Code3
New Line.line_75620306_3107730_3104334 Units=km Length=0.025 bus1=3104334.1 bus2=3107730.1 switch=n enabled=y phases=1 Linecode=1P_Code3
New Line.line_75620331_3104766_3105240 Units=km Length=0.041599998474121096 bus1=3105240.1.2.3 bus2=3104766.1.2.3 switch=n enabled=y phases=3 Linecode=3P_OH_Code2
New Line.line_75620343_3104276_3103199 Units=km Length=0.017100000381469728 bus1=3103199.1.2.3 bus2=3104276.1.2.3 switch=n enabled=y phases=3 Linecode=3P_OH_Code0
New Line.line_75620497_3107823_3103387 Units=km Length=0.011399999618530273 bus1=3103387.3 bus2=3107823.3 switch=n enabled=y phases=1 Linecode=1P_Code3
New Line.line_75620728_3105240_3103509 Units=km Length=0.056599998474121095 bus1=3103509.1.2.3 bus2=3105240.1.2.3 switch=n enabled=y phases=3 Linecode=3P_OH_Code2
New Line.line_75620868_3104927_3103387 Units=km Length=0.03490000152587891 bus1=3103387.3 bus2=3104927.3 switch=n enabled=y phases=1 Linecode=1P_Code3
New Line.line_75621016_3105437_3103507 Units=km Length=0.015 bus1=3103507.1.2.3 bus2=3105437.1.2.3 switch=n enabled=y phases=3 Linecode=3P_Code6
New Line.line_75621050_3108109_3105436 Units=km Length=0.012899999618530274 bus1=3105436.2 bus2=3108109.2 switch=n enabled=y phases=1 Linecode=1P_Code3
New Line.line_75621051_3108110_3105437 Units=km Length=0.0145 bus1=3105437.1.2.3 bus2=3108110.1.2.3 switch=n enabled=y phases=3 Linecode=3P_Code6
New Line.line_75621052_3108111_3105436 Units=km Length=0.013600000381469727 bus1=3105436.2 bus2=3108111.2 switch=n enabled=y phases=1 Linecode=1P_Code3
New Line.line_75621073_3108123_3105452 Units=km Length=0.012899999618530274 bus1=3105452.2 bus2=3108123.2 switch=n enabled=y phases=1 Linecode=1P_Code3
New Line.line_75621080_3105452_3105240 Units=km Length=0.010199999809265137 bus1=3105240.2 bus2=3105452.2 switch=n enabled=y phases=1 Linecode=1P_Code3
New Line.line_75621081_3108130_3105452 Units=km Length=0.016299999237060547 bus1=3105452.2 bus2=3108130.2 switch=n enabled=y phases=1 Linecode=1P_Code3
New Line.line_75621114_3105113_3104725 Units=km Length=0.01760000038146973 bus1=3104725.1.2.3 bus2=3105113.1.2.3 switch=n enabled=y phases=3 Linecode=3P_Code5
New Line.line_75621211_3108215_3104334 Units=km Length=0.013000000000000001 bus1=3104334.3 bus2=3108215.3 switch=n enabled=y phases=1 Linecode=1P_Code3
New Line.line_75621325_3104264_3104334 Units=km Length=0.038799999237060546 bus1=3104334.1.2.3 bus2=3104264.1.2.3 switch=n enabled=y phases=3 Linecode=3P_Code7
New Line.line_75621639_3108406_3103387 Units=km Length=0.014600000381469727 bus1=3103387.1 bus2=3108406.1 switch=n enabled=y phases=1 Linecode=1P_Code3
New Line.line_75621646_3105636_3104256 Units=km Length=0.0485 bus1=3104256.1.2.3 bus2=3105636.1.2.3 switch=n enabled=y phases=3 Linecode=3P_OH_Code0
New Line.line_75621647_3108410_3105636 Units=km Length=0.0085 bus1=3105636.1.2.3 bus2=3108410.1.2.3 switch=n enabled=y phases=3 Linecode=3P_OH_Code1
New Line.line_75621648_3105636_3103509 Units=km Length=0.047700000762939454 bus1=3103509.1.2.3 bus2=3105636.1.2.3 switch=n enabled=y phases=3 Linecode=3P_OH_Code2
New Line.line_75631542_3109311_3106369 Units=km Length=0.03377501913964078 bus1=3106369.2 bus2=3109311.2 switch=n enabled=y phases=1 Linecode=1P_Code8
New Line.line_75631673_3109442_3107531 Units=km Length=0.010932964648140978 bus1=3107531.2 bus2=3109442.2 switch=n enabled=y phases=1 Linecode=1P_Code8
New Line.line_75631674_3109443_3106777 Units=km Length=0.049401277738052314 bus1=3106777.3 bus2=3109443.3 switch=n enabled=y phases=1 Linecode=1P_Code8
New Line.line_75631675_3109444_3106777 Units=km Length=0.049401277738052314 bus1=3106777.3 bus2=3109444.3 switch=n enabled=y phases=1 Linecode=1P_Code8
New Line.line_75631676_3109445_3104766 Units=km Length=0.02115691079889487 bus1=3104766.2 bus2=3109445.2 switch=n enabled=y phases=1 Linecode=1P_Code8
New Line.line_75631678_3109447_3108130 Units=km Length=0.006658742918155177 bus1=3108130.2 bus2=3109447.2 switch=n enabled=y phases=1 Linecode=1P_Code8
New Line.line_75631679_3109448_3106928 Units=km Length=0.006656369130645513 bus1=3106928.2 bus2=3109448.2 switch=n enabled=y phases=1 Linecode=1P_Code8
New Line.line_75631680_3109449_3106453 Units=km Length=0.004434864851303462 bus1=3106453.1 bus2=3109449.1 switch=n enabled=y phases=1 Linecode=1P_Code8
New Line.line_75631681_3109450_3106453 Units=km Length=0.011564738270060843 bus1=3106453.1 bus2=3109450.1 switch=n enabled=y phases=1 Linecode=1P_Code8
New Line.line_75631685_3109454_3106454 Units=km Length=0.00452393371386281 bus1=3106454.2 bus2=3109454.2 switch=n enabled=y phases=1 Linecode=1P_Code8
New Line.line_75631686_3109455_3106454 Units=km Length=0.00452393371386281 bus1=3106454.2 bus2=3109455.2 switch=n enabled=y phases=1 Linecode=1P_Code8
New Line.line_75631687_3109456_3108406 Units=km Length=0.009043375977095855 bus1=3108406.1 bus2=3109456.1 switch=n enabled=y phases=1 Linecode=1P_Code8
New Line.line_75632035_3109804_3109123 Units=km Length=0.012236319587942033 bus1=3109123.3 bus2=3109804.3 switch=n enabled=y phases=1 Linecode=1P_Code8
New Line.line_75632037_3109806_3109123 Units=km Length=0.03105129119825457 bus1=3109123.2 bus2=3109806.2 switch=n enabled=y phases=1 Linecode=1P_Code8
New Line.line_75632038_3109807_3108123 Units=km Length=0.026876434176666027 bus1=3108123.2 bus2=3109807.2 switch=n enabled=y phases=1 Linecode=1P_Code8
New Line.line_75632045_3109814_3109123 Units=km Length=0.012236319587942033 bus1=3109123.3 bus2=3109814.3 switch=n enabled=y phases=1 Linecode=1P_Code8
New Line.line_75632046_3109815_3103510 Units=km Length=0.014838706580849135 bus1=3103510.2 bus2=3109815.2 switch=n enabled=y phases=1 Linecode=1P_Code8
New Line.line_75632047_3109816_3106451 Units=km Length=0.012198600553343993 bus1=3106451.2 bus2=3109816.2 switch=n enabled=y phases=1 Linecode=1P_Code8
New Line.line_75632050_3109819_3109123 Units=km Length=0.016090192185730268 bus1=3109123.2 bus2=3109819.2 switch=n enabled=y phases=1 Linecode=1P_Code8
New Line.line_75632052_3109821_3106370 Units=km Length=0.009365402824327821 bus1=3106370.2 bus2=3109821.2 switch=n enabled=y phases=1 Linecode=1P_Code8
New Line.line_75632070_3109839_3109123 Units=km Length=0.022430099989768266 bus1=3109123.3 bus2=3109839.3 switch=n enabled=y phases=1 Linecode=1P_Code8
New Line.line_75632071_3109840_3105113 Units=km Length=0.015247231635661556 bus1=3105113.2 bus2=3109840.2 switch=n enabled=y phases=1 Linecode=1P_Code8
New Line.line_75632072_3109841_3109123 Units=km Length=0.02012250885385862 bus1=3109123.1 bus2=3109841.1 switch=n enabled=y phases=1 Linecode=1P_Code8
New Line.line_75632085_3109854_3105113 Units=km Length=0.012241963856671123 bus1=3105113.2 bus2=3109854.2 switch=n enabled=y phases=1 Linecode=1P_Code8
New Line.line_75632112_3109881_3108109 Units=km Length=0.008767642285793303 bus1=3108109.2 bus2=3109881.2 switch=n enabled=y phases=1 Linecode=1P_Code8
New Line.line_75632246_3110015_3105685 Units=km Length=0.02025171810590354 bus1=3105685.3 bus2=3110015.3 switch=n enabled=y phases=1 Linecode=1P_Code8
New Line.line_75632364_3110133_3106369 Units=km Length=0.006308143549914606 bus1=3106369.1 bus2=3110133.1 switch=n enabled=y phases=1 Linecode=1P_Code8
New Line.line_75632365_3110134_3106369 Units=km Length=0.006308143549914606 bus1=3106369.1 bus2=3110134.1 switch=n enabled=y phases=1 Linecode=1P_Code8
New Line.line_75632366_3110135_3106369 Units=km Length=0.006308143549914606 bus1=3106369.1 bus2=3110135.1 switch=n enabled=y phases=1 Linecode=1P_Code8
New Line.line_75632367_3110136_3106369 Units=km Length=0.006308143549914606 bus1=3106369.3 bus2=3110136.3 switch=n enabled=y phases=1 Linecode=1P_Code8
New Line.line_75632368_3110137_3106369 Units=km Length=0.006308143549914606 bus1=3106369.2 bus2=3110137.2 switch=n enabled=y phases=1 Linecode=1P_Code8
New Line.line_75632389_3110158_3106454 Units=km Length=0.00452393371386281 bus1=3106454.2 bus2=3110158.2 switch=n enabled=y phases=1 Linecode=1P_Code8
New Line.line_75632456_3110225_3106452 Units=km Length=0.05076329843065307 bus1=3106452.1 bus2=3110225.1 switch=n enabled=y phases=1 Linecode=1P_Code8
New Line.line_75632479_3110248_3108406 Units=km Length=0.009043375977095855 bus1=3108406.1 bus2=3110248.1 switch=n enabled=y phases=1 Linecode=1P_Code8
New Line.line_75632513_3110282_3106928 Units=km Length=0.006656369130645513 bus1=3106928.2 bus2=3110282.2 switch=n enabled=y phases=1 Linecode=1P_Code8
New Line.line_75632594_3110363_3106454 Units=km Length=0.00452393371386281 bus1=3106454.2 bus2=3110363.2 switch=n enabled=y phases=1 Linecode=1P_Code8
New Line.line_75632696_3110465_3108111 Units=km Length=0.005132937755173292 bus1=3108111.2 bus2=3110465.2 switch=n enabled=y phases=1 Linecode=1P_Code8
